Version 4
SHEET 1 1824 680
WIRE -736 -1280 -736 -1360
WIRE -1120 -1184 -1456 -1184
WIRE -336 -1184 -1120 -1184
WIRE -1120 -1088 -1120 -1184
WIRE -1120 -1088 -1392 -1088
WIRE -1840 -1072 -1888 -1072
WIRE -2032 -1056 -2080 -1056
WIRE -1936 -1056 -1984 -1056
WIRE -1888 -1056 -1888 -1072
WIRE -992 -1056 -1040 -1056
WIRE -896 -1056 -912 -1056
WIRE -1376 -1024 -1456 -1024
WIRE -2032 -976 -2032 -1056
WIRE -1984 -976 -2032 -976
WIRE -1936 -976 -1936 -1056
WIRE -1888 -976 -1936 -976
WIRE -1392 -976 -1392 -1088
WIRE -2080 -960 -2080 -976
WIRE -1456 -960 -1456 -1024
WIRE -1424 -960 -1456 -960
WIRE -1120 -960 -1120 -1088
WIRE -944 -960 -1120 -960
WIRE -1296 -944 -1296 -1024
WIRE -1296 -944 -1360 -944
WIRE -1216 -944 -1296 -944
WIRE -1040 -944 -1040 -1056
WIRE -1040 -944 -1136 -944
WIRE -976 -944 -1040 -944
WIRE -1424 -928 -1456 -928
WIRE -896 -928 -896 -1056
WIRE -896 -928 -912 -928
WIRE -864 -928 -896 -928
WIRE -752 -928 -784 -928
WIRE -672 -928 -752 -928
WIRE -1456 -912 -1456 -928
WIRE -976 -912 -1120 -912
WIRE -752 -912 -752 -928
WIRE -1120 -880 -1120 -912
WIRE -2032 -768 -2096 -768
WIRE -2032 -720 -2032 -768
WIRE -1920 -720 -1952 -720
WIRE -336 -672 -336 -1184
WIRE -1888 -608 -1936 -608
WIRE -1648 -480 -1664 -480
WIRE -1536 -480 -1568 -480
WIRE -1616 -432 -1680 -432
WIRE -1616 -384 -1616 -432
WIRE -1904 -368 -1904 -448
WIRE -1744 -368 -1840 -368
WIRE -1664 -368 -1664 -480
WIRE -1648 -368 -1664 -368
WIRE -1536 -352 -1536 -480
WIRE -1536 -352 -1584 -352
WIRE -1520 -352 -1536 -352
WIRE -1504 -352 -1520 -352
WIRE -1648 -336 -1744 -336
WIRE -1488 -208 -1488 -656
FLAG -672 -928 Vout
IOPIN -672 -928 Out
FLAG -2080 -960 0
FLAG -1840 -1072 Stimulus
FLAG -1920 -720 9V
IOPIN -1920 -720 Out
FLAG -2096 -688 0
FLAG -1520 -1200 9V
IOPIN -1520 -1200 In
FLAG -1888 -608 Vout
IOPIN -1888 -608 Out
FLAG -1536 -960 Stimulus
FLAG -1456 -1216 0
FLAG -896 -1264 0
FLAG -736 -1280 Vdc
FLAG -1120 -720 0
FLAG -944 -896 0
FLAG -1616 -320 0
FLAG -1744 -176 0
FLAG -1520 -352 N003
IOPIN -1520 -352 Out
FLAG -752 -848 0
FLAG -1456 -832 0
FLAG -1392 -912 0
SYMBOL voltage -1984 -1072 R0
WINDOW 123 0 0 Left 0
WINDOW 39 0 0 Left 0
WINDOW 3 -89 197 Left 2
WINDOW 0 -13 54 Left 2
SYMATTR Value PWL file=PWLinput.csv
SYMATTR InstName V2
SYMBOL voltage -1888 -1072 R0
WINDOW 123 24 44 Left 2
WINDOW 39 0 0 Left 0
WINDOW 3 -386 233 Left 2
WINDOW 0 -11 56 Left 2
SYMATTR Value SINE({sineOffset} {sineAmplitude} {sineFreq})
SYMATTR InstName V3
SYMBOL voltage -2080 -1072 R0
WINDOW 123 0 0 Left 0
WINDOW 39 0 0 Left 0
WINDOW 3 3 160 Left 2
WINDOW 0 -13 55 Left 2
SYMATTR Value {dcAmplitude}
SYMATTR InstName V1
SYMBOL voltage -2096 -784 R0
WINDOW 123 24 44 Left 2
WINDOW 39 0 0 Left 0
WINDOW 3 -46 76 Left 2
WINDOW 0 -13 57 Left 2
SYMATTR Value 9
SYMATTR InstName V4
SYMBOL res -1936 -736 R90
WINDOW 0 -9 30 VBottom 2
WINDOW 3 34 56 VTop 2
SYMATTR InstName R_Sense
SYMATTR Value 0.010
SYMBOL AutoGenerated/LM7805 -1488 -1200 R0
SYMATTR InstName U1
SYMBOL voltage -896 -1360 R0
WINDOW 0 38 33 Left 2
SYMATTR InstName Vgnd
SYMATTR Value 0.5
SYMBOL res -896 -1072 R90
WINDOW 0 0 56 VBottom 2
WINDOW 3 32 56 VTop 2
SYMATTR InstName R1
SYMATTR Value 750k
SYMBOL res -1120 -960 R90
WINDOW 0 0 56 VBottom 2
WINDOW 3 32 56 VTop 2
SYMATTR InstName R2a
SYMATTR Value 30k
SYMBOL res -1104 -784 R180
WINDOW 0 36 76 Left 2
WINDOW 3 36 40 Left 2
SYMATTR InstName R2b
SYMATTR Value 30k
SYMBOL res -624 -1440 R0
SYMATTR InstName Rdc
SYMATTR Value 260
SYMBOL voltage -1120 -816 R0
SYMATTR InstName V5
SYMATTR Value 0.21
SYMBOL res -912 -1440 R0
SYMATTR InstName R1b
SYMATTR Value 800k
SYMBOL Opamps/opamp2 -1616 -416 R0
SYMATTR InstName U2
SYMATTR Value TL081
SYMBOL res -1648 -384 R90
WINDOW 0 0 56 VBottom 2
WINDOW 3 32 56 VTop 2
SYMATTR InstName R2
SYMATTR Value 10k
SYMBOL res -1728 -240 R180
WINDOW 0 36 76 Left 2
WINDOW 3 36 40 Left 2
SYMATTR InstName R3
SYMATTR Value 10k
SYMBOL res -1552 -496 R90
WINDOW 0 0 56 VBottom 2
WINDOW 3 32 56 VTop 2
SYMATTR InstName R4
SYMATTR Value 10k
SYMBOL voltage -1744 -272 R0
SYMATTR InstName V6
SYMATTR Value 1.16
SYMBOL cap -736 -848 R180
WINDOW 0 24 56 Left 2
WINDOW 3 24 8 Left 2
SYMATTR InstName C1
SYMATTR Value 2.36µ
SYMBOL res -768 -944 R90
WINDOW 0 0 56 VBottom 2
WINDOW 3 32 56 VTop 2
SYMATTR InstName R5
SYMATTR Value 100
SYMBOL res -1440 -976 R90
WINDOW 0 0 56 VBottom 2
WINDOW 3 32 56 VTop 2
SYMATTR InstName R6
SYMATTR Value 100k
SYMBOL res -1280 -1040 R90
WINDOW 0 0 56 VBottom 2
WINDOW 3 32 56 VTop 2
SYMATTR InstName R7
SYMATTR Value 100k
SYMBOL Opamps/opamp2 -1392 -1008 R0
WINDOW 0 -35 15 Left 2
SYMATTR InstName U4
SYMATTR Value TLC2272
SYMBOL voltage -1456 -928 R0
WINDOW 0 40 65 Left 2
SYMATTR InstName V8
SYMATTR Value 0.69
SYMBOL Opamps/opamp2 -944 -992 R0
WINDOW 0 -35 15 Left 2
WINDOW 3 -43 123 Left 2
SYMATTR InstName U3
SYMATTR Value TLC2272
TEXT -2080 -1120 Left 2 !.tran 0 {transtop} 0 {timestep}
TEXT -1952 -1168 Left 2 !.include E344cfg.txt
TEXT -2288 -1384 Left 2 ;Don't change these -- used for auto-assessments.\nYou may modify input files while developing.\nFor submission: \n  * Use only 9V supply \n  * Connect "Stimulus" to your input\n  * Connect "Vout" to your output.\n  * Only one label name per net.
TEXT -2280 -1168 Left 2 ;Config file:
TEXT -2280 -1120 Left 2 ;Analysis setup:
TEXT -2272 -744 Left 2 ;Battery
TEXT -2280 -1032 Left 2 ;Sensor-\nemulating \nstimulus
TEXT -2272 -608 Left 2 ;Assessed nets:\nConnect to your outputs
TEXT -1552 -1400 Left 2 ;T. Colley,  21564027\nV(0degV) = 500 mV\ndeltaV/degV = 20 mV
TEXT -1296 -1400 Left 2 !.incl LM78XX.lib\n.incl TL081.lib\n.incl TLC2272.lib
LINE Normal -1792 -1008 -1856 -1008 2
LINE Normal -1792 -864 -1792 -1008 2
LINE Normal -1808 -880 -1792 -864 2
LINE Normal -1792 -864 -1808 -880 2
LINE Normal -1776 -880 -1792 -864 2
LINE Normal -2128 -1008 -2112 -1008 2
LINE Normal -2128 -928 -2128 -1008 2
LINE Normal -2128 -912 -2128 -928 2
LINE Normal -2096 -912 -2128 -912 2
LINE Normal -2112 -928 -2096 -912 2
LINE Normal -2096 -912 -2112 -928 2
LINE Normal -2112 -896 -2096 -912 2
LINE Normal -1968 -944 -1968 -992 2
LINE Normal -1856 -944 -1968 -944 2
LINE Normal -1856 -896 -1856 -944 2
LINE Normal -1872 -912 -1856 -896 2
LINE Normal -1856 -896 -1872 -912 2
LINE Normal -1840 -912 -1856 -896 2
LINE Normal -2304 -544 -2304 -1408 1
LINE Normal -1680 -1408 -1680 -544 1
LINE Normal -1680 -544 -2304 -544 1
LINE Normal -1680 -1408 -2304 -1408 1
